*SPEF "IEEE 1481-1998"
*DESIGN "mips32"
*DATE "Thu Aug  1 06:59:34 2024"
*VENDOR "Cadence Design Systems, Inc."
*PROGRAM "Innovus"
*VERSION "21.18-s099_1"
*DESIGN_FLOW "COUPLING C" "PIN_CAP NONE" "NAME_SCOPE LOCAL"
*DIVIDER /
*DELIMITER :
*BUS_DELIMITER []
*T_UNIT 1 NS
*C_UNIT 1 PF
*R_UNIT 1 OHM
*L_UNIT 1 HENRY

// MMMC spef file for corner 'default_rc_corner'

*NAME_MAP

*1 cont/FE_PHN55_reset
*2 dp/rf/FE_OFN56_wd_21
*3 dp/rf/FE_OFN55_wd_1
*4 CTS_1
*5 dp/CTS_9
*6 dp/rf/CTS_3
*7 dp/CTS_8
*8 dp/CTS_7
*9 dp/CTS_6
*10 dp/CTS_5
*11 dp/CTS_4
*12 dp/CTS_3
*13 dp/CTS_2
*14 dp/CTS_1
*15 dp/CTS_12
*16 dp/CTS_11
*17 dp/rf/CTS_2
*18 dp/rf/FE_OFN54_FE_OFN23_n238
*19 dp/rf/FE_OFN53_FE_OFN19_n171
*20 dp/src2mux/FE_OFN52_n7
*21 dp/rf/FE_OFN49_wd_2
*22 dp/rf/FE_OFN47_wd_8
*23 dp/rf/FE_OFN42_wd_26
*24 dp/alunit/FE_OFN40_n42
*25 dp/alunit/FE_OFN39_n39
*26 dp/pcreg/FE_OFN38_n36
*27 dp/rf/FE_OFN37_n835
*28 dp/rf/FE_OFN36_n833
*29 dp/rf/FE_OFN35_n832
*30 dp/rf/FE_OFN34_n831
*31 dp/rf/FE_OFN33_n830
*32 dp/rf/FE_OFN32_n829
*33 dp/rf/FE_OFN31_n828
*34 dp/rf/FE_OFN30_n660
*35 dp/rf/FE_OFN29_n658
*36 dp/rf/FE_OFN28_n656
*37 dp/rf/FE_OFN27_n655
*38 dp/rf/FE_OFN26_n654
*39 dp/rf/FE_OFN25_n271
*40 dp/rf/FE_OFN24_n271
*41 dp/rf/FE_OFN23_n238
*42 dp/rf/FE_OFN22_n238
*43 dp/rf/FE_OFN21_n205
*44 dp/rf/FE_OFN20_n205
*45 dp/rf/FE_OFN19_n171
*46 dp/rf/FE_OFN18_n171
*47 dp/rf/FE_OFN17_n138
*48 dp/rf/FE_OFN16_n138
*49 dp/rf/FE_OFN15_n105
*50 dp/rf/FE_OFN14_n105
*51 dp/rf/FE_OFN13_n72
*52 dp/rf/FE_OFN12_n72
*53 dp/rf/FE_OFN11_n38
*54 dp/rf/FE_OFN10_n38
*55 dp/pcmux/FE_OFN9_n149
*56 dp/pcmux/FE_OFN8_n148
*57 dp/src2mux/FE_OFN7_n6
*58 dp/pcreg/FE_OFN6_n35
*59 dp/FE_RN_1
*60 dp/FE_OFN4_SYNOPSYS_UNCONNECTED__12
*61 dp/alunit/FE_OFN3_alucont_1
*62 dp/alunit/FE_OFN2_alucont_2
*63 cont/FE_OFN1_irwrite_3
*64 clk
*65 reset
*66 memdata[31]
*67 memdata[30]
*68 memdata[29]
*69 memdata[28]
*70 memdata[27]
*71 memdata[26]
*72 memdata[25]
*73 memdata[24]
*74 memdata[23]
*75 memdata[22]
*76 memdata[21]
*77 memdata[20]
*78 memdata[19]
*79 memdata[18]
*80 memdata[17]
*81 memdata[16]
*82 memdata[15]
*83 memdata[14]
*84 memdata[13]
*85 memdata[12]
*86 memdata[11]
*87 memdata[10]
*88 memdata[9]
*89 memdata[8]
*90 memdata[7]
*91 memdata[6]
*92 memdata[5]
*93 memdata[4]
*94 memdata[3]
*95 memdata[2]
*96 memdata[1]
*97 memdata[0]
*98 memread
*99 memwrite
*100 adr[31]
*101 adr[30]
*102 adr[29]
*103 adr[28]
*104 adr[27]
*105 adr[26]
*106 adr[25]
*107 adr[24]
*108 adr[23]
*109 adr[22]
*110 adr[21]
*111 adr[20]
*112 adr[19]
*113 adr[18]
*114 adr[17]
*115 adr[16]
*116 adr[15]
*117 adr[14]
*118 adr[13]
*119 adr[12]
*120 adr[11]
*121 adr[10]
*122 adr[9]
*123 adr[8]
*124 adr[7]
*125 adr[6]
*126 adr[5]
*127 adr[4]
*128 adr[3]
*129 adr[2]
*130 adr[1]
*131 adr[0]
*132 writedata[31]
*133 writedata[30]
*134 writedata[29]
*135 writedata[28]
*136 writedata[27]
*137 writedata[26]
*138 writedata[25]
*139 writedata[24]
*140 writedata[23]
*141 writedata[22]
*142 writedata[21]
*143 writedata[20]
*144 writedata[19]
*145 writedata[18]
*146 writedata[17]
*147 writedata[16]
*148 writedata[15]
*149 writedata[14]
*150 writedata[13]
*151 writedata[12]
*152 writedata[11]
*153 writedata[10]
*154 writedata[9]
*155 writedata[8]
*156 writedata[7]
*157 writedata[6]
*158 writedata[5]
*159 writedata[4]
*160 writedata[3]
*161 writedata[2]
*162 writedata[1]
*163 writedata[0]
*164 zero
*165 alusrca
*166 memtoreg
*167 iord
*168 pcen
*169 regwrite
*170 regdst
*171 instr[31]
*172 instr[30]
*173 instr[29]
*174 instr[28]
*175 instr[27]
*176 instr[26]
*177 instr[5]
*178 instr[4]
*179 instr[3]
*180 instr[2]
*181 instr[1]
*182 instr[0]
*183 pcsource[1]
*184 alusrcb[1]
*185 alusrcb[0]
*186 aluop[1]
*187 aluop[0]
*188 irwrite[3]
*189 irwrite[2]
*190 irwrite[1]
*191 irwrite[0]
*192 alucont[2]
*193 alucont[1]
*194 alucont[0]
*195 SYNOPSYS_UNCONNECTED__2
*196 SYNOPSYS_UNCONNECTED__3
*197 SYNOPSYS_UNCONNECTED__4
*198 SYNOPSYS_UNCONNECTED__7
*199 SYNOPSYS_UNCONNECTED__8
*200 SYNOPSYS_UNCONNECTED__9
*201 SYNOPSYS_UNCONNECTED__10
*202 SYNOPSYS_UNCONNECTED__11
*203 SYNOPSYS_UNCONNECTED__13
*204 SYNOPSYS_UNCONNECTED__14
*205 SYNOPSYS_UNCONNECTED__15
*206 SYNOPSYS_UNCONNECTED__16
*207 SYNOPSYS_UNCONNECTED__17
*208 SYNOPSYS_UNCONNECTED__18
*209 SYNOPSYS_UNCONNECTED__19
*210 cont/N48
*211 cont/N49
*212 cont/N50
*213 cont/N51
*214 cont/n5
*215 cont/n7
*216 cont/n8
*217 cont/n9
*218 cont/n19
*219 cont/n20
*220 cont/n21
*221 cont/n22
*222 cont/n23
*223 cont/n24
*224 cont/n25
*225 cont/n26
*226 cont/n27
*227 cont/n28
*228 cont/n29
*229 cont/n30
*230 cont/n31
*231 cont/n32
*232 cont/n33
*233 cont/n34
*234 cont/n35
*235 cont/n36
*236 cont/n37
*237 cont/n38
*238 cont/n39
*239 cont/n40
*240 cont/n41
*241 cont/n42
*242 cont/n43
*243 cont/n44
*244 cont/n45
*245 cont/n46
*246 cont/n47
*247 cont/n48
*248 cont/n49
*249 cont/n50
*250 cont/n51
*251 cont/n52
*252 cont/n53
*253 cont/n2
*254 cont/n3
*255 cont/n4
*256 cont/n6
*257 cont/n10
*258 cont/n11
*259 cont/n12
*260 cont/n13
*261 cont/n14
*262 cont/n15
*263 cont/n17
*264 cont/n18
*265 cont/n54
*266 cont/state[3]
*267 cont/state[2]
*268 cont/state[1]
*269 cont/state[0]
*270 ac/n5
*271 ac/n6
*272 ac/n7
*273 ac/n8
*274 ac/n9
*275 ac/n10
*276 ac/n11
*277 ac/n12
*278 ac/n2
*279 ac/n3
*280 ac/n4
*281 ac/n13
*282 dp/wa[2]
*283 dp/wa[1]
*284 dp/wa[0]
*285 dp/nextpc[31]
*286 dp/nextpc[30]
*287 dp/nextpc[29]
*288 dp/nextpc[28]
*289 dp/nextpc[27]
*290 dp/nextpc[26]
*291 dp/nextpc[25]
*292 dp/nextpc[24]
*293 dp/nextpc[23]
*294 dp/nextpc[22]
*295 dp/nextpc[21]
*296 dp/nextpc[20]
*297 dp/nextpc[19]
*298 dp/nextpc[18]
*299 dp/nextpc[17]
*300 dp/nextpc[16]
*301 dp/nextpc[15]
*302 dp/nextpc[14]
*303 dp/nextpc[13]
*304 dp/nextpc[12]
*305 dp/nextpc[11]
*306 dp/nextpc[10]
*307 dp/nextpc[9]
*308 dp/nextpc[8]
*309 dp/nextpc[7]
*310 dp/nextpc[6]
*311 dp/nextpc[5]
*312 dp/nextpc[4]
*313 dp/nextpc[3]
*314 dp/nextpc[2]
*315 dp/nextpc[1]
*316 dp/nextpc[0]
*317 dp/pc[31]
*318 dp/pc[30]
*319 dp/pc[29]
*320 dp/pc[28]
*321 dp/pc[27]
*322 dp/pc[26]
*323 dp/pc[25]
*324 dp/pc[24]
*325 dp/pc[23]
*326 dp/pc[22]
*327 dp/pc[21]
*328 dp/pc[20]
*329 dp/pc[19]
*330 dp/pc[18]
*331 dp/pc[17]
*332 dp/pc[16]
*333 dp/pc[15]
*334 dp/pc[14]
*335 dp/pc[13]
*336 dp/pc[12]
*337 dp/pc[11]
*338 dp/pc[10]
*339 dp/pc[9]
*340 dp/pc[8]
*341 dp/pc[7]
*342 dp/pc[6]
*343 dp/pc[5]
*344 dp/pc[4]
*345 dp/pc[3]
*346 dp/pc[2]
*347 dp/pc[1]
*348 dp/pc[0]
*349 dp/md[31]
*350 dp/md[30]
*351 dp/md[29]
*352 dp/md[28]
*353 dp/md[27]
*354 dp/md[26]
*355 dp/md[25]
*356 dp/md[24]
*357 dp/md[23]
*358 dp/md[22]
*359 dp/md[21]
*360 dp/md[20]
*361 dp/md[19]
*362 dp/md[18]
*363 dp/md[17]
*364 dp/md[16]
*365 dp/md[15]
*366 dp/md[14]
*367 dp/md[13]
*368 dp/md[12]
*369 dp/md[11]
*370 dp/md[10]
*371 dp/md[9]
*372 dp/md[8]
*373 dp/md[7]
*374 dp/md[6]
*375 dp/md[5]
*376 dp/md[4]
*377 dp/md[3]
*378 dp/md[2]
*379 dp/md[1]
*380 dp/md[0]
*381 dp/rd1[31]
*382 dp/rd1[30]
*383 dp/rd1[29]
*384 dp/rd1[28]
*385 dp/rd1[27]
*386 dp/rd1[26]
*387 dp/rd1[25]
*388 dp/rd1[24]
*389 dp/rd1[23]
*390 dp/rd1[22]
*391 dp/rd1[21]
*392 dp/rd1[20]
*393 dp/rd1[19]
*394 dp/rd1[18]
*395 dp/rd1[17]
*396 dp/rd1[16]
*397 dp/rd1[15]
*398 dp/rd1[14]
*399 dp/rd1[13]
*400 dp/rd1[12]
*401 dp/rd1[11]
*402 dp/rd1[10]
*403 dp/rd1[9]
*404 dp/rd1[8]
*405 dp/rd1[7]
*406 dp/rd1[6]
*407 dp/rd1[5]
*408 dp/rd1[4]
*409 dp/rd1[3]
*410 dp/rd1[2]
*411 dp/rd1[1]
*412 dp/rd1[0]
*413 dp/a[31]
*414 dp/a[30]
*415 dp/a[29]
*416 dp/a[28]
*417 dp/a[27]
*418 dp/a[26]
*419 dp/a[25]
*420 dp/a[24]
*421 dp/a[23]
*422 dp/a[22]
*423 dp/a[21]
*424 dp/a[20]
*425 dp/a[19]
*426 dp/a[18]
*427 dp/a[17]
*428 dp/a[16]
*429 dp/a[15]
*430 dp/a[14]
*431 dp/a[13]
*432 dp/a[12]
*433 dp/a[11]
*434 dp/a[10]
*435 dp/a[9]
*436 dp/a[8]
*437 dp/a[7]
*438 dp/a[6]
*439 dp/a[5]
*440 dp/a[4]
*441 dp/a[3]
*442 dp/a[2]
*443 dp/a[1]
*444 dp/a[0]
*445 dp/rd2[31]
*446 dp/rd2[30]
*447 dp/rd2[29]
*448 dp/rd2[28]
*449 dp/rd2[27]
*450 dp/rd2[26]
*451 dp/rd2[25]
*452 dp/rd2[24]
*453 dp/rd2[23]
*454 dp/rd2[22]
*455 dp/rd2[21]
*456 dp/rd2[20]
*457 dp/rd2[19]
*458 dp/rd2[18]
*459 dp/rd2[17]
*460 dp/rd2[16]
*461 dp/rd2[15]
*462 dp/rd2[14]
*463 dp/rd2[13]
*464 dp/rd2[12]
*465 dp/rd2[11]
*466 dp/rd2[10]
*467 dp/rd2[9]
*468 dp/rd2[8]
*469 dp/rd2[7]
*470 dp/rd2[6]
*471 dp/rd2[5]
*472 dp/rd2[4]
*473 dp/rd2[3]
*474 dp/rd2[2]
*475 dp/rd2[1]
*476 dp/rd2[0]
*477 dp/aluresult[31]
*478 dp/aluresult[30]
*479 dp/aluresult[29]
*480 dp/aluresult[28]
*481 dp/aluresult[27]
*482 dp/aluresult[26]
*483 dp/aluresult[25]
*484 dp/aluresult[24]
*485 dp/aluresult[23]
*486 dp/aluresult[22]
*487 dp/aluresult[21]
*488 dp/aluresult[20]
*489 dp/aluresult[19]
*490 dp/aluresult[18]
*491 dp/aluresult[17]
*492 dp/aluresult[16]
*493 dp/aluresult[15]
*494 dp/aluresult[14]
*495 dp/aluresult[13]
*496 dp/aluresult[12]
*497 dp/aluresult[11]
*498 dp/aluresult[10]
*499 dp/aluresult[9]
*500 dp/aluresult[8]
*501 dp/aluresult[7]
*502 dp/aluresult[6]
*503 dp/aluresult[5]
*504 dp/aluresult[4]
*505 dp/aluresult[3]
*506 dp/aluresult[2]
*507 dp/aluresult[1]
*508 dp/aluresult[0]
*509 dp/aluout[31]
*510 dp/aluout[30]
*511 dp/aluout[29]
*512 dp/aluout[28]
*513 dp/aluout[27]
*514 dp/aluout[26]
*515 dp/aluout[25]
*516 dp/aluout[24]
*517 dp/aluout[23]
*518 dp/aluout[22]
*519 dp/aluout[21]
*520 dp/aluout[20]
*521 dp/aluout[19]
*522 dp/aluout[18]
*523 dp/aluout[17]
*524 dp/aluout[16]
*525 dp/aluout[15]
*526 dp/aluout[14]
*527 dp/aluout[13]
*528 dp/aluout[12]
*529 dp/aluout[11]
*530 dp/aluout[10]
*531 dp/aluout[9]
*532 dp/aluout[8]
*533 dp/aluout[7]
*534 dp/aluout[6]
*535 dp/aluout[5]
*536 dp/aluout[4]
*537 dp/aluout[3]
*538 dp/aluout[2]
*539 dp/aluout[1]
*540 dp/aluout[0]
*541 dp/src1[31]
*542 dp/src1[30]
*543 dp/src1[29]
*544 dp/src1[28]
*545 dp/src1[27]
*546 dp/src1[26]
*547 dp/src1[25]
*548 dp/src1[24]
*549 dp/src1[23]
*550 dp/src1[22]
*551 dp/src1[21]
*552 dp/src1[20]
*553 dp/src1[19]
*554 dp/src1[18]
*555 dp/src1[17]
*556 dp/src1[16]
*557 dp/src1[15]
*558 dp/src1[14]
*559 dp/src1[13]
*560 dp/src1[12]
*561 dp/src1[11]
*562 dp/src1[10]
*563 dp/src1[9]
*564 dp/src1[8]
*565 dp/src1[7]
*566 dp/src1[6]
*567 dp/src1[5]
*568 dp/src1[4]
*569 dp/src1[3]
*570 dp/src1[2]
*571 dp/src1[1]
*572 dp/src1[0]
*573 dp/src2[31]
*574 dp/src2[30]
*575 dp/src2[29]
*576 dp/src2[28]
*577 dp/src2[27]
*578 dp/src2[26]
*579 dp/src2[25]
*580 dp/src2[24]
*581 dp/src2[23]
*582 dp/src2[22]
*583 dp/src2[21]
*584 dp/src2[20]
*585 dp/src2[19]
*586 dp/src2[18]
*587 dp/src2[17]
*588 dp/src2[16]
*589 dp/src2[15]
*590 dp/src2[14]
*591 dp/src2[13]
*592 dp/src2[12]
*593 dp/src2[11]
*594 dp/src2[10]
*595 dp/src2[9]
*596 dp/src2[8]
*597 dp/src2[7]
*598 dp/src2[6]
*599 dp/src2[5]
*600 dp/src2[4]
*601 dp/src2[3]
*602 dp/src2[2]
*603 dp/src2[1]
*604 dp/src2[0]
*605 dp/wd[31]
*606 dp/wd[30]
*607 dp/wd[29]
*608 dp/wd[28]
*609 dp/wd[27]
*610 dp/wd[26]
*611 dp/wd[25]
*612 dp/wd[24]
*613 dp/wd[23]
*614 dp/wd[22]
*615 dp/wd[21]
*616 dp/wd[20]
*617 dp/wd[19]
*618 dp/wd[18]
*619 dp/wd[17]
*620 dp/wd[16]
*621 dp/wd[15]
*622 dp/wd[14]
*623 dp/wd[13]
*624 dp/wd[12]
*625 dp/wd[11]
*626 dp/wd[10]
*627 dp/wd[9]
*628 dp/wd[8]
*629 dp/wd[7]
*630 dp/wd[6]
*631 dp/wd[5]
*632 dp/wd[4]
*633 dp/wd[3]
*634 dp/wd[2]
*635 dp/wd[1]
*636 dp/wd[0]
*637 dp/regmux/n5
*638 dp/regmux/n6
*639 dp/regmux/n7
*640 dp/regmux/n4
*641 dp/ir/n1
*642 dp/ir/n2
*643 dp/ir/n3
*644 dp/ir/n4
*645 dp/ir/n5
*646 dp/ir/n6
*647 dp/ir/n7
*648 dp/ir/n8
*649 dp/ir/n9
*650 dp/ir/n10
*651 dp/ir/n11
*652 dp/ir/n12
*653 dp/ir/n13
*654 dp/ir/n14
*655 dp/ir/n15
*656 dp/ir/n16
*657 dp/ir/n17
*658 dp/ir/n18
*659 dp/ir/n19
*660 dp/ir/n22
*661 dp/ir/n23
*662 dp/ir/n24
*663 dp/ir/n27
*664 dp/ir/n28
*665 dp/ir/n29
*666 dp/ir/n30
*667 dp/ir/n31
*668 dp/ir/n32
*669 dp/ir/n33
*670 dp/ir/n34
*671 dp/ir/n35
*672 dp/ir/n36
*673 dp/ir/n37
*674 dp/ir/n38
*675 dp/ir/n41
*676 dp/ir/n42
*677 dp/ir/n43
*678 dp/ir/n46
*679 dp/ir/n47
*680 dp/ir/n48
*681 dp/ir/n49
*682 dp/ir/n50
*683 dp/ir/n51
*684 dp/ir/n52
*685 dp/ir/n53
*686 dp/ir/n54
*687 dp/ir/n55
*688 dp/ir/n56
*689 dp/ir/n57
*690 dp/ir/n58
*691 dp/ir/n59
*692 dp/ir/n60
*693 dp/ir/n61
*694 dp/ir/n62
*695 dp/ir/n63
*696 dp/ir/n64
*697 dp/ir/n65
*698 dp/ir/n66
*699 dp/ir/n67
*700 dp/ir/n68
*701 dp/ir/n69
*702 dp/ir/n70
*703 dp/ir/n71
*704 dp/ir/n72
*705 dp/ir/n73
*706 dp/ir/n74
*707 dp/ir/n75
*708 dp/ir/n76
*709 dp/ir/n77
*710 dp/ir/n78
*711 dp/ir/n79
*712 dp/ir/n80
*713 dp/ir/n81
*714 dp/ir/n82
*715 dp/ir/n83
*716 dp/ir/n86
*717 dp/ir/n87
*718 dp/ir/n88
*719 dp/ir/n91
*720 dp/ir/n92
*721 dp/ir/n93
*722 dp/ir/n94
*723 dp/ir/n95
*724 dp/ir/n96
*725 dp/pcreg/n34
*726 dp/pcreg/n35
*727 dp/pcreg/n36
*728 dp/pcreg/n37
*729 dp/pcreg/n38
*730 dp/pcreg/n39
*731 dp/pcreg/n40
*732 dp/pcreg/n41
*733 dp/pcreg/n42
*734 dp/pcreg/n43
*735 dp/pcreg/n44
*736 dp/pcreg/n45
*737 dp/pcreg/n46
*738 dp/pcreg/n47
*739 dp/pcreg/n48
*740 dp/pcreg/n49
*741 dp/pcreg/n50
*742 dp/pcreg/n51
*743 dp/pcreg/n52
*744 dp/pcreg/n53
*745 dp/pcreg/n54
*746 dp/pcreg/n55
*747 dp/pcreg/n56
*748 dp/pcreg/n57
*749 dp/pcreg/n58
*750 dp/pcreg/n59
*751 dp/pcreg/n60
*752 dp/pcreg/n61
*753 dp/pcreg/n62
*754 dp/pcreg/n63
*755 dp/pcreg/n64
*756 dp/pcreg/n65
*757 dp/pcreg/n66
*758 dp/pcreg/n67
*759 dp/pcreg/n9
*760 dp/pcreg/n10
*761 dp/pcreg/n11
*762 dp/pcreg/n12
*763 dp/pcreg/n13
*764 dp/pcreg/n14
*765 dp/pcreg/n15
*766 dp/pcreg/n16
*767 dp/pcreg/n17
*768 dp/pcreg/n18
*769 dp/pcreg/n19
*770 dp/pcreg/n20
*771 dp/pcreg/n21
*772 dp/pcreg/n22
*773 dp/pcreg/n23
*774 dp/pcreg/n24
*775 dp/pcreg/n25
*776 dp/pcreg/n26
*777 dp/pcreg/n27
*778 dp/pcreg/n28
*779 dp/pcreg/n29
*780 dp/pcreg/n30
*781 dp/pcreg/n31
*782 dp/pcreg/n32
*783 dp/pcreg/n33
*784 dp/pcreg/n68
*785 dp/pcreg/n69
*786 dp/pcreg/n70
*787 dp/pcreg/n71
*788 dp/pcreg/n72
*789 dp/pcreg/n73
*790 dp/pcreg/n74
*791 dp/pcreg/n75
*792 dp/adrmux/n34
*793 dp/adrmux/n35
*794 dp/adrmux/n36
*795 dp/adrmux/n37
*796 dp/adrmux/n38
*797 dp/adrmux/n39
*798 dp/adrmux/n40
*799 dp/adrmux/n41
*800 dp/adrmux/n42
*801 dp/adrmux/n43
*802 dp/adrmux/n44
*803 dp/adrmux/n45
*804 dp/adrmux/n46
*805 dp/adrmux/n47
*806 dp/adrmux/n48
*807 dp/adrmux/n49
*808 dp/adrmux/n50
*809 dp/adrmux/n51
*810 dp/adrmux/n52
*811 dp/adrmux/n53
*812 dp/adrmux/n54
*813 dp/adrmux/n55
*814 dp/adrmux/n56
*815 dp/adrmux/n57
*816 dp/adrmux/n58
*817 dp/adrmux/n59
*818 dp/adrmux/n60
*819 dp/adrmux/n61
*820 dp/adrmux/n62
*821 dp/adrmux/n63
*822 dp/adrmux/n64
*823 dp/adrmux/n65
*824 dp/adrmux/n7
*825 dp/src1mux/n6
*826 dp/src1mux/n71
*827 dp/src1mux/n72
*828 dp/src1mux/n73
*829 dp/src1mux/n74
*830 dp/src1mux/n75
*831 dp/src1mux/n76
*832 dp/src1mux/n77
*833 dp/src1mux/n78
*834 dp/src1mux/n79
*835 dp/src1mux/n80
*836 dp/src1mux/n81
*837 dp/src1mux/n82
*838 dp/src1mux/n83
*839 dp/src1mux/n84
*840 dp/src1mux/n85
*841 dp/src1mux/n86
*842 dp/src1mux/n87
*843 dp/src1mux/n88
*844 dp/src1mux/n89
*845 dp/src1mux/n90
*846 dp/src1mux/n91
*847 dp/src1mux/n92
*848 dp/src1mux/n93
*849 dp/src1mux/n94
*850 dp/src1mux/n95
*851 dp/src1mux/n96
*852 dp/src1mux/n97
*853 dp/src1mux/n98
*854 dp/src1mux/n99
*855 dp/src1mux/n100
*856 dp/src1mux/n101
*857 dp/src1mux/n102
*858 dp/src2mux/n2
*859 dp/src2mux/n3
*860 dp/src2mux/n4
*861 dp/src2mux/n5
*862 dp/src2mux/n6
*863 dp/src2mux/n7
*864 dp/src2mux/n8
*865 dp/src2mux/n9
*866 dp/src2mux/n10
*867 dp/src2mux/n11
*868 dp/src2mux/n12
*869 dp/src2mux/n13
*870 dp/src2mux/n14
*871 dp/src2mux/n15
*872 dp/src2mux/n16
*873 dp/src2mux/n17
*874 dp/src2mux/n18
*875 dp/src2mux/n19
*876 dp/src2mux/n20
*877 dp/src2mux/n21
*878 dp/src2mux/n22
*879 dp/src2mux/n23
*880 dp/src2mux/n24
*881 dp/src2mux/n25
*882 dp/src2mux/n26
*883 dp/src2mux/n27
*884 dp/src2mux/n28
*885 dp/src2mux/n29
*886 dp/src2mux/n30
*887 dp/src2mux/n31
*888 dp/src2mux/n32
*889 dp/src2mux/n33
*890 dp/src2mux/n34
*891 dp/src2mux/n35
*892 dp/src2mux/n36
*893 dp/src2mux/n37
*894 dp/src2mux/n38
*895 dp/src2mux/n39
*896 dp/src2mux/n40
*897 dp/src2mux/n41
*898 dp/src2mux/n42
*899 dp/src2mux/n43
*900 dp/src2mux/n44
*901 dp/src2mux/n45
*902 dp/src2mux/n46
*903 dp/src2mux/n47
*904 dp/src2mux/n48
*905 dp/src2mux/n49
*906 dp/src2mux/n50
*907 dp/src2mux/n51
*908 dp/src2mux/n52
*909 dp/src2mux/n53
*910 dp/src2mux/n54
*911 dp/src2mux/n55
*912 dp/src2mux/n56
*913 dp/src2mux/n57
*914 dp/src2mux/n58
*915 dp/src2mux/n59
*916 dp/src2mux/n60
*917 dp/src2mux/n61
*918 dp/src2mux/n62
*919 dp/src2mux/n63
*920 dp/src2mux/n64
*921 dp/src2mux/n65
*922 dp/src2mux/n66
*923 dp/src2mux/n67
*924 dp/src2mux/n68
*925 dp/src2mux/n69
*926 dp/src2mux/n85
*927 dp/pcmux/n85
*928 dp/pcmux/n87
*929 dp/pcmux/n88
*930 dp/pcmux/n89
*931 dp/pcmux/n90
*932 dp/pcmux/n91
*933 dp/pcmux/n92
*934 dp/pcmux/n93
*935 dp/pcmux/n94
*936 dp/pcmux/n95
*937 dp/pcmux/n96
*938 dp/pcmux/n97
*939 dp/pcmux/n98
*940 dp/pcmux/n99
*941 dp/pcmux/n101
*942 dp/pcmux/n103
*943 dp/pcmux/n105
*944 dp/pcmux/n107
*945 dp/pcmux/n109
*946 dp/pcmux/n111
*947 dp/pcmux/n113
*948 dp/pcmux/n115
*949 dp/pcmux/n117
*950 dp/pcmux/n119
*951 dp/pcmux/n121
*952 dp/pcmux/n123
*953 dp/pcmux/n125
*954 dp/pcmux/n127
*955 dp/pcmux/n129
*956 dp/pcmux/n130
*957 dp/pcmux/n131
*958 dp/pcmux/n133
*959 dp/pcmux/n135
*960 dp/pcmux/n136
*961 dp/pcmux/n137
*962 dp/pcmux/n138
*963 dp/pcmux/n139
*964 dp/pcmux/n140
*965 dp/pcmux/n141
*966 dp/pcmux/n142
*967 dp/pcmux/n143
*968 dp/pcmux/n144
*969 dp/pcmux/n145
*970 dp/pcmux/n146
*971 dp/pcmux/n147
*972 dp/pcmux/n148
*973 dp/pcmux/n149
*974 dp/pcmux/n150
*975 dp/pcmux/n151
*976 dp/pcmux/n152
*977 dp/pcmux/n153
*978 dp/wdmux/n7
*979 dp/rf/RAM\[7\]\[31\]
*980 dp/rf/RAM\[7\]\[30\]
*981 dp/rf/RAM\[7\]\[29\]
*982 dp/rf/RAM\[7\]\[28\]
*983 dp/rf/RAM\[7\]\[27\]
*984 dp/rf/RAM\[7\]\[26\]
*985 dp/rf/RAM\[7\]\[25\]
*986 dp/rf/RAM\[7\]\[24\]
*987 dp/rf/RAM\[7\]\[23\]
*988 dp/rf/RAM\[7\]\[22\]
*989 dp/rf/RAM\[7\]\[21\]
*990 dp/rf/RAM\[7\]\[20\]
*991 dp/rf/RAM\[7\]\[19\]
*992 dp/rf/RAM\[7\]\[18\]
*993 dp/rf/RAM\[7\]\[17\]
*994 dp/rf/RAM\[7\]\[16\]
*995 dp/rf/RAM\[7\]\[15\]
*996 dp/rf/RAM\[7\]\[14\]
*997 dp/rf/RAM\[7\]\[13\]
*998 dp/rf/RAM\[7\]\[12\]
*999 dp/rf/RAM\[7\]\[11\]
*1000 dp/rf/RAM\[7\]\[10\]
*1001 dp/rf/RAM\[7\]\[9\]
*1002 dp/rf/RAM\[7\]\[8\]
*1003 dp/rf/RAM\[7\]\[7\]
*1004 dp/rf/RAM\[7\]\[6\]
*1005 dp/rf/RAM\[7\]\[5\]
*1006 dp/rf/RAM\[7\]\[4\]
*1007 dp/rf/RAM\[7\]\[3\]
*1008 dp/rf/RAM\[7\]\[2\]
*1009 dp/rf/RAM\[7\]\[1\]
*1010 dp/rf/RAM\[7\]\[0\]
*1011 dp/rf/RAM\[6\]\[31\]
*1012 dp/rf/RAM\[6\]\[30\]
*1013 dp/rf/RAM\[6\]\[29\]
*1014 dp/rf/RAM\[6\]\[28\]
*1015 dp/rf/RAM\[6\]\[27\]
*1016 dp/rf/RAM\[6\]\[26\]
*1017 dp/rf/RAM\[6\]\[25\]
*1018 dp/rf/RAM\[6\]\[24\]
*1019 dp/rf/RAM\[6\]\[23\]
*1020 dp/rf/RAM\[6\]\[22\]
*1021 dp/rf/RAM\[6\]\[21\]
*1022 dp/rf/RAM\[6\]\[20\]
*1023 dp/rf/RAM\[6\]\[19\]
*1024 dp/rf/RAM\[6\]\[18\]
*1025 dp/rf/RAM\[6\]\[17\]
*1026 dp/rf/RAM\[6\]\[16\]
*1027 dp/rf/RAM\[6\]\[15\]
*1028 dp/rf/RAM\[6\]\[14\]
*1029 dp/rf/RAM\[6\]\[13\]
*1030 dp/rf/RAM\[6\]\[12\]
*1031 dp/rf/RAM\[6\]\[11\]
*1032 dp/rf/RAM\[6\]\[10\]
*1033 dp/rf/RAM\[6\]\[9\]
*1034 dp/rf/RAM\[6\]\[8\]
*1035 dp/rf/RAM\[6\]\[7\]
*1036 dp/rf/RAM\[6\]\[6\]
*1037 dp/rf/RAM\[6\]\[5\]
*1038 dp/rf/RAM\[6\]\[4\]
*1039 dp/rf/RAM\[6\]\[3\]
*1040 dp/rf/RAM\[6\]\[2\]
*1041 dp/rf/RAM\[6\]\[1\]
*1042 dp/rf/RAM\[6\]\[0\]
*1043 dp/rf/RAM\[5\]\[31\]
*1044 dp/rf/RAM\[5\]\[30\]
*1045 dp/rf/RAM\[5\]\[29\]
*1046 dp/rf/RAM\[5\]\[28\]
*1047 dp/rf/RAM\[5\]\[27\]
*1048 dp/rf/RAM\[5\]\[26\]
*1049 dp/rf/RAM\[5\]\[25\]
*1050 dp/rf/RAM\[5\]\[24\]
*1051 dp/rf/RAM\[5\]\[23\]
*1052 dp/rf/RAM\[5\]\[22\]
*1053 dp/rf/RAM\[5\]\[21\]
*1054 dp/rf/RAM\[5\]\[20\]
*1055 dp/rf/RAM\[5\]\[19\]
*1056 dp/rf/RAM\[5\]\[18\]
*1057 dp/rf/RAM\[5\]\[17\]
*1058 dp/rf/RAM\[5\]\[16\]
*1059 dp/rf/RAM\[5\]\[15\]
*1060 dp/rf/RAM\[5\]\[14\]
*1061 dp/rf/RAM\[5\]\[13\]
*1062 dp/rf/RAM\[5\]\[12\]
*1063 dp/rf/RAM\[5\]\[11\]
*1064 dp/rf/RAM\[5\]\[10\]
*1065 dp/rf/RAM\[5\]\[9\]
*1066 dp/rf/RAM\[5\]\[8\]
*1067 dp/rf/RAM\[5\]\[7\]
*1068 dp/rf/RAM\[5\]\[6\]
*1069 dp/rf/RAM\[5\]\[5\]
*1070 dp/rf/RAM\[5\]\[4\]
*1071 dp/rf/RAM\[5\]\[3\]
*1072 dp/rf/RAM\[5\]\[2\]
*1073 dp/rf/RAM\[5\]\[1\]
*1074 dp/rf/RAM\[5\]\[0\]
*1075 dp/rf/RAM\[4\]\[31\]
*1076 dp/rf/RAM\[4\]\[30\]
*1077 dp/rf/RAM\[4\]\[29\]
*1078 dp/rf/RAM\[4\]\[28\]
*1079 dp/rf/RAM\[4\]\[27\]
*1080 dp/rf/RAM\[4\]\[26\]
*1081 dp/rf/RAM\[4\]\[25\]
*1082 dp/rf/RAM\[4\]\[24\]
*1083 dp/rf/RAM\[4\]\[23\]
*1084 dp/rf/RAM\[4\]\[22\]
*1085 dp/rf/RAM\[4\]\[21\]
*1086 dp/rf/RAM\[4\]\[20\]
*1087 dp/rf/RAM\[4\]\[19\]
*1088 dp/rf/RAM\[4\]\[18\]
*1089 dp/rf/RAM\[4\]\[17\]
*1090 dp/rf/RAM\[4\]\[16\]
*1091 dp/rf/RAM\[4\]\[15\]
*1092 dp/rf/RAM\[4\]\[14\]
*1093 dp/rf/RAM\[4\]\[13\]
*1094 dp/rf/RAM\[4\]\[12\]
*1095 dp/rf/RAM\[4\]\[11\]
*1096 dp/rf/RAM\[4\]\[10\]
*1097 dp/rf/RAM\[4\]\[9\]
*1098 dp/rf/RAM\[4\]\[8\]
*1099 dp/rf/RAM\[4\]\[7\]
*1100 dp/rf/RAM\[4\]\[6\]
*1101 dp/rf/RAM\[4\]\[5\]
*1102 dp/rf/RAM\[4\]\[4\]
*1103 dp/rf/RAM\[4\]\[3\]
*1104 dp/rf/RAM\[4\]\[2\]
*1105 dp/rf/RAM\[4\]\[1\]
*1106 dp/rf/RAM\[4\]\[0\]
*1107 dp/rf/RAM\[3\]\[31\]
*1108 dp/rf/RAM\[3\]\[30\]
*1109 dp/rf/RAM\[3\]\[29\]
*1110 dp/rf/RAM\[3\]\[28\]
*1111 dp/rf/RAM\[3\]\[27\]
*1112 dp/rf/RAM\[3\]\[26\]
*1113 dp/rf/RAM\[3\]\[25\]
*1114 dp/rf/RAM\[3\]\[24\]
*1115 dp/rf/RAM\[3\]\[23\]
*1116 dp/rf/RAM\[3\]\[22\]
*1117 dp/rf/RAM\[3\]\[21\]
*1118 dp/rf/RAM\[3\]\[20\]
*1119 dp/rf/RAM\[3\]\[19\]
*1120 dp/rf/RAM\[3\]\[18\]
*1121 dp/rf/RAM\[3\]\[17\]
*1122 dp/rf/RAM\[3\]\[16\]
*1123 dp/rf/RAM\[3\]\[15\]
*1124 dp/rf/RAM\[3\]\[14\]
*1125 dp/rf/RAM\[3\]\[13\]
*1126 dp/rf/RAM\[3\]\[12\]
*1127 dp/rf/RAM\[3\]\[11\]
*1128 dp/rf/RAM\[3\]\[10\]
*1129 dp/rf/RAM\[3\]\[9\]
*1130 dp/rf/RAM\[3\]\[8\]
*1131 dp/rf/RAM\[3\]\[7\]
*1132 dp/rf/RAM\[3\]\[6\]
*1133 dp/rf/RAM\[3\]\[5\]
*1134 dp/rf/RAM\[3\]\[4\]
*1135 dp/rf/RAM\[3\]\[3\]
*1136 dp/rf/RAM\[3\]\[2\]
*1137 dp/rf/RAM\[3\]\[1\]
*1138 dp/rf/RAM\[3\]\[0\]
*1139 dp/rf/RAM\[2\]\[31\]
*1140 dp/rf/RAM\[2\]\[30\]
*1141 dp/rf/RAM\[2\]\[29\]
*1142 dp/rf/RAM\[2\]\[28\]
*1143 dp/rf/RAM\[2\]\[27\]
*1144 dp/rf/RAM\[2\]\[26\]
*1145 dp/rf/RAM\[2\]\[25\]
*1146 dp/rf/RAM\[2\]\[24\]
*1147 dp/rf/RAM\[2\]\[23\]
*1148 dp/rf/RAM\[2\]\[22\]
*1149 dp/rf/RAM\[2\]\[21\]
*1150 dp/rf/RAM\[2\]\[20\]
*1151 dp/rf/RAM\[2\]\[19\]
*1152 dp/rf/RAM\[2\]\[18\]
*1153 dp/rf/RAM\[2\]\[17\]
*1154 dp/rf/RAM\[2\]\[16\]
*1155 dp/rf/RAM\[2\]\[15\]
*1156 dp/rf/RAM\[2\]\[14\]
*1157 dp/rf/RAM\[2\]\[13\]
*1158 dp/rf/RAM\[2\]\[12\]
*1159 dp/rf/RAM\[2\]\[11\]
*1160 dp/rf/RAM\[2\]\[10\]
*1161 dp/rf/RAM\[2\]\[9\]
*1162 dp/rf/RAM\[2\]\[8\]
*1163 dp/rf/RAM\[2\]\[7\]
*1164 dp/rf/RAM\[2\]\[6\]
*1165 dp/rf/RAM\[2\]\[5\]
*1166 dp/rf/RAM\[2\]\[4\]
*1167 dp/rf/RAM\[2\]\[3\]
*1168 dp/rf/RAM\[2\]\[2\]
*1169 dp/rf/RAM\[2\]\[1\]
*1170 dp/rf/RAM\[2\]\[0\]
*1171 dp/rf/RAM\[1\]\[31\]
*1172 dp/rf/RAM\[1\]\[30\]
*1173 dp/rf/RAM\[1\]\[29\]
*1174 dp/rf/RAM\[1\]\[28\]
*1175 dp/rf/RAM\[1\]\[27\]
*1176 dp/rf/RAM\[1\]\[26\]
*1177 dp/rf/RAM\[1\]\[25\]
*1178 dp/rf/RAM\[1\]\[24\]
*1179 dp/rf/RAM\[1\]\[23\]
*1180 dp/rf/RAM\[1\]\[22\]
*1181 dp/rf/RAM\[1\]\[21\]
*1182 dp/rf/RAM\[1\]\[20\]
*1183 dp/rf/RAM\[1\]\[19\]
*1184 dp/rf/RAM\[1\]\[18\]
*1185 dp/rf/RAM\[1\]\[17\]
*1186 dp/rf/RAM\[1\]\[16\]
*1187 dp/rf/RAM\[1\]\[15\]
*1188 dp/rf/RAM\[1\]\[14\]
*1189 dp/rf/RAM\[1\]\[13\]
*1190 dp/rf/RAM\[1\]\[12\]
*1191 dp/rf/RAM\[1\]\[11\]
*1192 dp/rf/RAM\[1\]\[10\]
*1193 dp/rf/RAM\[1\]\[9\]
*1194 dp/rf/RAM\[1\]\[8\]
*1195 dp/rf/RAM\[1\]\[7\]
*1196 dp/rf/RAM\[1\]\[6\]
*1197 dp/rf/RAM\[1\]\[5\]
*1198 dp/rf/RAM\[1\]\[4\]
*1199 dp/rf/RAM\[1\]\[3\]
*1200 dp/rf/RAM\[1\]\[2\]
*1201 dp/rf/RAM\[1\]\[1\]
*1202 dp/rf/RAM\[1\]\[0\]
*1203 dp/rf/RAM\[0\]\[31\]
*1204 dp/rf/RAM\[0\]\[30\]
*1205 dp/rf/RAM\[0\]\[29\]
*1206 dp/rf/RAM\[0\]\[28\]
*1207 dp/rf/RAM\[0\]\[27\]
*1208 dp/rf/RAM\[0\]\[26\]
*1209 dp/rf/RAM\[0\]\[25\]
*1210 dp/rf/RAM\[0\]\[24\]
*1211 dp/rf/RAM\[0\]\[23\]
*1212 dp/rf/RAM\[0\]\[22\]
*1213 dp/rf/RAM\[0\]\[21\]
*1214 dp/rf/RAM\[0\]\[20\]
*1215 dp/rf/RAM\[0\]\[19\]
*1216 dp/rf/RAM\[0\]\[18\]
*1217 dp/rf/RAM\[0\]\[17\]
*1218 dp/rf/RAM\[0\]\[16\]
*1219 dp/rf/RAM\[0\]\[15\]
*1220 dp/rf/RAM\[0\]\[14\]
*1221 dp/rf/RAM\[0\]\[13\]
*1222 dp/rf/RAM\[0\]\[12\]
*1223 dp/rf/RAM\[0\]\[11\]
*1224 dp/rf/RAM\[0\]\[10\]
*1225 dp/rf/RAM\[0\]\[9\]
*1226 dp/rf/RAM\[0\]\[8\]
*1227 dp/rf/RAM\[0\]\[7\]
*1228 dp/rf/RAM\[0\]\[6\]
*1229 dp/rf/RAM\[0\]\[5\]
*1230 dp/rf/RAM\[0\]\[4\]
*1231 dp/rf/RAM\[0\]\[3\]
*1232 dp/rf/RAM\[0\]\[2\]
*1233 dp/rf/RAM\[0\]\[1\]
*1234 dp/rf/RAM\[0\]\[0\]
*1235 dp/rf/N37
*1236 dp/rf/N38
*1237 dp/rf/N39
*1238 dp/rf/N40
*1239 dp/rf/N41
*1240 dp/rf/N42
*1241 dp/rf/N43
*1242 dp/rf/N44
*1243 dp/rf/N45
*1244 dp/rf/N46
*1245 dp/rf/N47
*1246 dp/rf/N48
*1247 dp/rf/N49
*1248 dp/rf/N50
*1249 dp/rf/N51
*1250 dp/rf/N52
*1251 dp/rf/N53
*1252 dp/rf/N54
*1253 dp/rf/N55
*1254 dp/rf/N56
*1255 dp/rf/N57
*1256 dp/rf/N58
*1257 dp/rf/N59
*1258 dp/rf/N60
*1259 dp/rf/N61
*1260 dp/rf/N62
*1261 dp/rf/N63
*1262 dp/rf/N64
*1263 dp/rf/N65
*1264 dp/rf/N66
*1265 dp/rf/N67
*1266 dp/rf/N68
*1267 dp/rf/N71
*1268 dp/rf/N72
*1269 dp/rf/N73
*1270 dp/rf/N74
*1271 dp/rf/N75
*1272 dp/rf/N76
*1273 dp/rf/N77
*1274 dp/rf/N78
*1275 dp/rf/N79
*1276 dp/rf/N80
*1277 dp/rf/N81
*1278 dp/rf/N82
*1279 dp/rf/N83
*1280 dp/rf/N84
*1281 dp/rf/N85
*1282 dp/rf/N86
*1283 dp/rf/N87
*1284 dp/rf/N88
*1285 dp/rf/N89
*1286 dp/rf/N90
*1287 dp/rf/N91
*1288 dp/rf/N92
*1289 dp/rf/N93
*1290 dp/rf/N94
*1291 dp/rf/N95
*1292 dp/rf/N96
*1293 dp/rf/N97
*1294 dp/rf/N98
*1295 dp/rf/N99
*1296 dp/rf/N100
*1297 dp/rf/N101
*1298 dp/rf/N102
*1299 dp/rf/n36
*1300 dp/rf/n37
*1301 dp/rf/n38
*1302 dp/rf/n39
*1303 dp/rf/n40
*1304 dp/rf/n41
*1305 dp/rf/n42
*1306 dp/rf/n43
*1307 dp/rf/n44
*1308 dp/rf/n45
*1309 dp/rf/n46
*1310 dp/rf/n47
*1311 dp/rf/n48
*1312 dp/rf/n49
*1313 dp/rf/n50
*1314 dp/rf/n51
*1315 dp/rf/n52
*1316 dp/rf/n53
*1317 dp/rf/n54
*1318 dp/rf/n55
*1319 dp/rf/n56
*1320 dp/rf/n57
*1321 dp/rf/n58
*1322 dp/rf/n59
*1323 dp/rf/n60
*1324 dp/rf/n61
*1325 dp/rf/n62
*1326 dp/rf/n63
*1327 dp/rf/n64
*1328 dp/rf/n65
*1329 dp/rf/n66
*1330 dp/rf/n67
*1331 dp/rf/n68
*1332 dp/rf/n69
*1333 dp/rf/n70
*1334 dp/rf/n71
*1335 dp/rf/n72
*1336 dp/rf/n73
*1337 dp/rf/n74
*1338 dp/rf/n75
*1339 dp/rf/n76
*1340 dp/rf/n77
*1341 dp/rf/n78
*1342 dp/rf/n79
*1343 dp/rf/n80
*1344 dp/rf/n81
*1345 dp/rf/n82
*1346 dp/rf/n83
*1347 dp/rf/n84
*1348 dp/rf/n85
*1349 dp/rf/n86
*1350 dp/rf/n87
*1351 dp/rf/n88
*1352 dp/rf/n89
*1353 dp/rf/n90
*1354 dp/rf/n91
*1355 dp/rf/n92
*1356 dp/rf/n93
*1357 dp/rf/n94
*1358 dp/rf/n95
*1359 dp/rf/n96
*1360 dp/rf/n97
*1361 dp/rf/n98
*1362 dp/rf/n99
*1363 dp/rf/n100
*1364 dp/rf/n101
*1365 dp/rf/n102
*1366 dp/rf/n103
*1367 dp/rf/n104
*1368 dp/rf/n105
*1369 dp/rf/n106
*1370 dp/rf/n107
*1371 dp/rf/n108
*1372 dp/rf/n109
*1373 dp/rf/n110
*1374 dp/rf/n111
*1375 dp/rf/n112
*1376 dp/rf/n113
*1377 dp/rf/n114
*1378 dp/rf/n115
*1379 dp/rf/n116
*1380 dp/rf/n117
*1381 dp/rf/n118
*1382 dp/rf/n119
*1383 dp/rf/n120
*1384 dp/rf/n121
*1385 dp/rf/n122
*1386 dp/rf/n123
*1387 dp/rf/n124
*1388 dp/rf/n125
*1389 dp/rf/n126
*1390 dp/rf/n127
*1391 dp/rf/n128
*1392 dp/rf/n129
*1393 dp/rf/n130
*1394 dp/rf/n131
*1395 dp/rf/n132
*1396 dp/rf/n133
*1397 dp/rf/n134
*1398 dp/rf/n135
*1399 dp/rf/n136
*1400 dp/rf/n137
*1401 dp/rf/n138
*1402 dp/rf/n139
*1403 dp/rf/n140
*1404 dp/rf/n141
*1405 dp/rf/n142
*1406 dp/rf/n143
*1407 dp/rf/n144
*1408 dp/rf/n145
*1409 dp/rf/n146
*1410 dp/rf/n147
*1411 dp/rf/n148
*1412 dp/rf/n149
*1413 dp/rf/n150
*1414 dp/rf/n151
*1415 dp/rf/n152
*1416 dp/rf/n153
*1417 dp/rf/n154
*1418 dp/rf/n155
*1419 dp/rf/n156
*1420 dp/rf/n157
*1421 dp/rf/n158
*1422 dp/rf/n159
*1423 dp/rf/n160
*1424 dp/rf/n161
*1425 dp/rf/n162
*1426 dp/rf/n163
*1427 dp/rf/n164
*1428 dp/rf/n165
*1429 dp/rf/n166
*1430 dp/rf/n167
*1431 dp/rf/n168
*1432 dp/rf/n169
*1433 dp/rf/n170
*1434 dp/rf/n171
*1435 dp/rf/n172
*1436 dp/rf/n173
*1437 dp/rf/n174
*1438 dp/rf/n175
*1439 dp/rf/n176
*1440 dp/rf/n177
*1441 dp/rf/n178
*1442 dp/rf/n179
*1443 dp/rf/n180
*1444 dp/rf/n181
*1445 dp/rf/n182
*1446 dp/rf/n183
*1447 dp/rf/n184
*1448 dp/rf/n185
*1449 dp/rf/n186
*1450 dp/rf/n187
*1451 dp/rf/n188
*1452 dp/rf/n189
*1453 dp/rf/n190
*1454 dp/rf/n191
*1455 dp/rf/n192
*1456 dp/rf/n193
*1457 dp/rf/n194
*1458 dp/rf/n195
*1459 dp/rf/n196
*1460 dp/rf/n197
*1461 dp/rf/n198
*1462 dp/rf/n199
*1463 dp/rf/n200
*1464 dp/rf/n201
*1465 dp/rf/n202
*1466 dp/rf/n203
*1467 dp/rf/n204
*1468 dp/rf/n205
*1469 dp/rf/n206
*1470 dp/rf/n207
*1471 dp/rf/n208
*1472 dp/rf/n209
*1473 dp/rf/n210
*1474 dp/rf/n211
*1475 dp/rf/n212
*1476 dp/rf/n213
*1477 dp/rf/n214
*1478 dp/rf/n215
*1479 dp/rf/n216
*1480 dp/rf/n217
*1481 dp/rf/n218
*1482 dp/rf/n219
*1483 dp/rf/n220
*1484 dp/rf/n221
*1485 dp/rf/n222
*1486 dp/rf/n223
*1487 dp/rf/n224
*1488 dp/rf/n225
*1489 dp/rf/n226
*1490 dp/rf/n227
*1491 dp/rf/n228
*1492 dp/rf/n229
*1493 dp/rf/n230
*1494 dp/rf/n231
*1495 dp/rf/n232
*1496 dp/rf/n233
*1497 dp/rf/n234
*1498 dp/rf/n235
*1499 dp/rf/n236
*1500 dp/rf/n237
*1501 dp/rf/n238
*1502 dp/rf/n239
*1503 dp/rf/n240
*1504 dp/rf/n241
*1505 dp/rf/n242
*1506 dp/rf/n243
*1507 dp/rf/n244
*1508 dp/rf/n245
*1509 dp/rf/n246
*1510 dp/rf/n247
*1511 dp/rf/n248
*1512 dp/rf/n249
*1513 dp/rf/n250
*1514 dp/rf/n251
*1515 dp/rf/n252
*1516 dp/rf/n253
*1517 dp/rf/n254
*1518 dp/rf/n255
*1519 dp/rf/n256
*1520 dp/rf/n257
*1521 dp/rf/n258
*1522 dp/rf/n259
*1523 dp/rf/n260
*1524 dp/rf/n261
*1525 dp/rf/n262
*1526 dp/rf/n263
*1527 dp/rf/n264
*1528 dp/rf/n265
*1529 dp/rf/n266
*1530 dp/rf/n267
*1531 dp/rf/n268
*1532 dp/rf/n269
*1533 dp/rf/n270
*1534 dp/rf/n271
*1535 dp/rf/n272
*1536 dp/rf/n273
*1537 dp/rf/n274
*1538 dp/rf/n275
*1539 dp/rf/n276
*1540 dp/rf/n277
*1541 dp/rf/n278
*1542 dp/rf/n279
*1543 dp/rf/n280
*1544 dp/rf/n281
*1545 dp/rf/n282
*1546 dp/rf/n283
*1547 dp/rf/n284
*1548 dp/rf/n285
*1549 dp/rf/n286
*1550 dp/rf/n287
*1551 dp/rf/n288
*1552 dp/rf/n289
*1553 dp/rf/n290
*1554 dp/rf/n291
*1555 dp/rf/n292
*1556 dp/rf/n293
*1557 dp/rf/n294
*1558 dp/rf/n295
*1559 dp/rf/n296
*1560 dp/rf/n297
*1561 dp/rf/n298
*1562 dp/rf/n299
*1563 dp/rf/n300
*1564 dp/rf/n301
*1565 dp/rf/n302
*1566 dp/rf/n303
*1567 dp/rf/n304
*1568 dp/rf/n305
*1569 dp/rf/n306
*1570 dp/rf/n307
*1571 dp/rf/n308
*1572 dp/rf/n309
*1573 dp/rf/n310
*1574 dp/rf/n311
*1575 dp/rf/n312
*1576 dp/rf/n313
*1577 dp/rf/n314
*1578 dp/rf/n315
*1579 dp/rf/n316
*1580 dp/rf/n317
*1581 dp/rf/n318
*1582 dp/rf/n319
*1583 dp/rf/n320
*1584 dp/rf/n321
*1585 dp/rf/n322
*1586 dp/rf/n323
*1587 dp/rf/n324
*1588 dp/rf/n325
*1589 dp/rf/n326
*1590 dp/rf/n327
*1591 dp/rf/n328
*1592 dp/rf/n329